 # Bcc Fe oriented X=[111], Y=[-101], Z=[1-21].
 CRYSTAL
 PRIMVEC
      2.48202881        0.00000000        0.00000000
      0.00000000        4.05313607        0.00000000
      0.00000000        0.00000000        7.02023760
 CONVVEC
      2.48202881        0.00000000        0.00000000
      0.00000000        4.05313607        0.00000000
      0.00000000        0.00000000        7.02023760
 PRIMCOORD
        6 1
26        0.00000000        0.00000000        0.00000000
26        0.00000000        2.02656803        3.51011880
26        1.65468587        0.00000000        4.68015840
26        1.65468587        2.02656803        1.17003960
26        0.82734294        0.00000000        2.34007920
26        0.82734294        2.02656803        5.85019800
